24
converted from sdf
C  30.1908  -27.7531   63.7043
H  29.4763  -27.1316   63.1850
C  31.5152  -27.8795   63.2498
H  31.8354  -27.3376   62.3722
C  32.4213  -28.7032   63.9276
H  33.4425  -28.8116   63.5833
C  32.0120  -29.3909   65.0701
H  32.7410  -30.0098   65.5822
C  30.7125  -29.2901   65.5693
C  29.8348  -28.4635   64.8550
O  28.5266  -28.2914   65.2537
C  27.9520  -29.2434   66.0682
C  28.7351  -30.1095   66.8431
C  28.0437  -31.0355   67.6259
H  28.5928  -31.7296   68.2531
C  26.6502  -31.0945   67.6448
H  26.1611  -31.8292   68.2727
C  25.9057  -30.2032   66.8635
H  24.8266  -30.2413   66.8869
C  26.5538  -29.2587   66.0485
H  25.9938  -28.5718   65.4313
C  30.2546  -29.9261   66.8847
H  30.5223  -29.2765   67.7181
H  30.7370  -30.8954   67.0101
